*Heading
** Job name: Job-2 Model name: Model-1
** Generated by: Abaqus/CAE 2018
*Preprint, echo=NO, model=NO, history=NO, contact=NO
**
** PARTS
**
*Part, name=Part-2
*Node
      1,  0.100000001,           0.,  0.200000003
      2, 0.0799999982,           0.,  0.200000003
      3, 0.0599999987,           0.,  0.200000003
      4, 0.0399999991,           0.,  0.200000003
      5, 0.0199999996,           0.,  0.200000003
      6,           0.,           0.,  0.200000003
      7, -0.0199999996,           0.,  0.200000003
      8, -0.0399999991,           0.,  0.200000003
      9, -0.0599999987,           0.,  0.200000003
     10, -0.0799999982,           0.,  0.200000003
     11, -0.100000001,           0.,  0.200000003
     12,  0.100000001,           0.,  0.180000007
     13, 0.0799999982,           0.,  0.180000007
     14, 0.0599999987,           0.,  0.180000007
     15, 0.0399999991,           0.,  0.180000007
     16, 0.0199999996,           0.,  0.180000007
     17,           0.,           0.,  0.180000007
     18, -0.0199999996,           0.,  0.180000007
     19, -0.0399999991,           0.,  0.180000007
     20, -0.0599999987,           0.,  0.180000007
** ... 101 like lines cut
*Element, type=R3D4
  1,   1,   2,  13,  12
  2,   2,   3,  14,  13
  3,   3,   4,  15,  14
  4,   4,   5,  16,  15
  5,   5,   6,  17,  16
  6,   6,   7,  18,  17
  7,   7,   8,  19,  18
  8,   8,   9,  20,  19
  9,   9,  10,  21,  20
 10,  10,  11,  22,  21
 11,  12,  13,  24,  23
 12,  13,  14,  25,  24
 13,  14,  15,  26,  25
 14,  15,  16,  27,  26
 15,  16,  17,  28,  27
 16,  17,  18,  29,  28
 17,  18,  19,  30,  29
 18,  19,  20,  31,  30
 19,  20,  21,  32,  31
 20,  21,  22,  33,  32
** ... 80 like lines cut
*End Part
**  
*Part, name=model-1
*Node
      1, -0.0945519656, 0.00610220805, -0.0691282526
      2, 0.00352311134, 0.00610220805, -0.0691282526
      3,           0.,           0., -0.0700000003
      4, -0.0972583517,           0., -0.0700000003
      5, -0.102100223, 0.00176229584, -0.0697482452
      6, -0.107786804, 0.00653390307, -0.0690665841
      7, -0.108001128, 0.00699352939, -0.0690009221
      8, -0.107786521,  0.007453389, -0.0689352304
      9, -0.106505089, 0.0085273236, -0.068781808
     10, -0.105956815, 0.00864493381, -0.068765007
     11, -0.0981381312, 0.00643965928, -0.0690800473
     12, -0.0945519656, 0.00567794358, -0.0661584064
     13, -0.0945132449, 0.00610559573, -0.0660973117
     14, 0.00327816233, 0.00567794358, -0.0661584064
     15, -0.0340000018, 0.00999999978, -0.0655409694
     16, -0.0399999991, 0.0160000008, -0.0646838248
     17, -0.0399999991, 0.0160000008, -0.0577142872
     18, -0.0340000018, 0.00999999978, -0.0585714281
     19, 0.00577350287, 0.00999999978, -0.0655409694
     20, 0.00577350287, 0.00999999978, -0.0585714281
** ... 38964 like lines cut
*Element, type=C3D10
    1,  3884,  3885,  3886,  2897,  5979,  5978,  5977,  5981,  5980,  5982
    2,  2897,  3885,  1131,  3884,  5980,  5984,  5983,  5981,  5979,  5985
    3,  2903,  2725,  3887,  2724,  5988,  5987,  5986,  5990,  5989,  5991
    4,  3884,  3888,   123,  3889,  5994,  5993,  5992,  5996,  5995,  5997
    5,  3884,   123,  3888,  1131,  5992,  5993,  5994,  5985,  5998,  5999
    6,  3890,  3115,  3891,  3892,  6002,  6001,  6000,  6004,  6003,  6005
    7,  3890,  3034,  3891,  3115,  6007,  6006,  6000,  6002,  6008,  6001
    8,  3890,  3893,  3007,  3097,  6011,  6010,  6009,  6013,  6012,  6014
    9,  3894,  3892,  2069,  3895,  6017,  6016,  6015,  6019,  6018,  6020
   10,  3516,  3896,  3897,  3898,  6023,  6022,  6021,  6025,  6024,  6026
   11,  3896,  3899,  3897,  3898,  6028,  6027,  6022,  6024,  6029,  6026
   12,  3897,  3896,  1308,  3899,  6022,  6031,  6030,  6027,  6028,  6032
   13,  3896,   159,  3900,  1309,  6035,  6034,  6033,  6037,  6036,  6038
   14,  3896,  1308,  3739,   159,  6031,  6040,  6039,  6035,  6041,  6042
   15,  3896,  3899,  3739,  1308,  6028,  6043,  6039,  6031,  6032,  6040
   16,  3901,  3902,  3903,  3904,  6046,  6045,  6044,  6048,  6047,  6049
   17,  3901,   157,  3905,  3494,  6052,  6051,  6050,  6054,  6053,  6055
   18,  3901,  3903,  3605,  3906,  6044,  6057,  6056,  6059,  6058,  6060
   19,  3901,  3605,  3903,  1344,  6056,  6057,  6044,  6062,  6061,  6063
   20,  3901,  1278,  3605,   157,  6065,  6064,  6056,  6052,  6066,  6067
** ... 23126 like lines cut
*Nset, nset=Set-3, generate
     1,  38984,      1
*Elset, elset=Set-3, generate
     1,  23146,      1
*Orientation, name=Ori-1
1., 0., 0., 0., 1., 0.
1, 0.
** Section: Section-1
*Solid Section, elset=Set-3, orientation=Ori-1, material=Material-1
,
*End Part
**  
**
** ASSEMBLY
**
*Assembly, name=Assembly
**  
*Instance, name=model-1-1, part=model-1
*End Instance
**  
*Instance, name=Part-2-1, part=Part-2
       -0.05,       -0.005,         -0.1
*End Instance
**  
*Node
      1, -0.0500000007, -0.00499999989,           0.
*Nset, nset=Set-1, instance=model-1-1
    77,    78,    79,    80,   676,   677,   678,   679,   680,   681,   682,   683,   684,   685,   686,   687
   688,   689,   690,   691,   692,   694,   695,   696,   697,   698,   699,   700,   701,   702,   703,   704
   705,   706,   707,   708,   709,   710,   711,   712,   713,   714,   715,   716,   717,   718,   719,   720
   721,   722,   723,   724,   725,   726,   727,   728,   729,   730,   731,   732,   733,   734,   735,   736
   737,   738,   739,   740,   741,   742,   743,   744,   745,   746,   747,   748,   749,   750,   751,   752
   753,   754,   755,   756,   757,   758,   759,   760,   761,   762,   763,   764,   765,   766,   767,   768
   769,   770,   771,   772,  2001,  2002,  2003,  2004,  2005,  2006,  2007,  2008,  2009,  2010,  2011,  2012
  2013,  2014,  2015,  2016,  2017,  2018,  2019,  2020,  2021,  2022,  2023,  2024,  2025,  2026,  2027,  2028
  2029,  2030,  2031,  2032,  2033,  2034,  2035,  2036,  2037,  2038,  2039,  2040,  2041,  2042,  2043,  2044
  2045,  2046,  2047,  2048,  2049,  2050,  2051,  2052,  2053,  2054,  2055,  2056,  2057,  2058,  2059,  2060
  2061,  2062,  2063,  2064,  2065,  2066,  2067,  2068,  2069,  2070,  2071,  2072,  2073,  2074,  2075,  2076
  2077,  2078,  2079,  2080,  2081,  2082,  2083,  2084,  2085,  2086,  2087,  2088,  2089,  2090,  2091,  2092
  2093,  2094,  2095,  2096,  2097,  2098,  2099,  2100,  2101,  2102,  2103,  2104,  2105,  2106,  2107,  2108
  2109,  2110,  2111,  2112,  2113,  2114,  2115,  2116,  2117,  2118,  2119,  2120,  2121,  2122,  2123,  2124
  2125,  2126,  2127,  2128,  2129,  2130,  2131,  2132,  2133,  2134,  2135,  2136,  2137,  2138,  2139,  2140
  2141,  2142,  2143,  2144,  2145,  2146,  2147,  2148,  2149,  2150,  2151,  2152,  2153,  2154,  2155,  2156
  2157,  2158,  2159,  2160,  2161,  2162,  2163,  2164,  2165,  2166,  2167,  2168,  2169,  2170,  2171,  2172
  2173,  2174,  2175,  2176,  2177,  2178,  2179,  2180,  2181,  2182,  2183,  2184,  2185,  2186,  2187,  2188
  2189,  2190,  2191,  2192,  2193,  2194,  2195,  2196,  2197,  2198,  2199,  2200,  2201,  2202,  2203,  2204
  2205,  2206,  2207,  2208,  2209,  2210,  2211,  2212,  2213,  2214,  2215,  2216,  2217,  2218,  2219,  2220
** ... 131 like lines cut
*Elset, elset=Set-1, instance=model-1-1
   160,   206,   440,   457,   699,   869,   963,   993,  1085,  1091,  1136,  1257,  1565,  1567,  1607,  1617
  1663,  1949,  2103,  2539,  2865,  3923,  4358,  4444,  4940,  5073,  5142,  5201,  5322,  5375,  5389,  5399
  5410,  5414,  5417,  5433,  5434,  5450,  5452,  5472,  5493,  5494,  5525,  5557,  5563,  5584,  5588,  5592
  5594,  5595,  5599,  5602,  5613,  5616,  5617,  5623,  5639,  5640,  5644,  5649,  5654,  6372,  6443,  6553
  6781,  6974,  7001,  7052,  7152,  7262,  7264,  7453,  7457,  7484,  7513,  7742,  7761,  7766,  7768,  8128
  8234,  8251,  8340,  8425,  8561,  8566,  8711,  8821,  8824,  8863,  8943,  8957,  9145,  9247,  9275,  9298
  9324,  9334,  9398,  9705,  9707,  9713,  9796,  9812,  9854,  9932, 10079, 10124, 10182, 10208, 10392, 10638
 10650, 10687, 10700, 10740, 10751, 10755, 10770, 10812, 10826, 11102, 11284, 11287, 11307, 11499, 11500, 11610
 11616, 11618, 11642, 11676, 11797, 11829, 11842, 11863, 11955, 12165, 12176, 12182, 12251, 12281, 12285, 12292
 12302, 12333, 12343, 12347, 12356, 12379, 12381, 12386, 12395, 12408, 12410, 12417, 12452, 12490, 12495, 12499
 12500, 12511, 12512, 12513, 12519, 12528, 12529, 12532, 12536, 12543, 12546, 12551, 12553, 12566, 12571, 12574
 12576, 12581, 12593, 12594, 12608, 12616, 12625, 12629, 12632, 12639, 12656, 12664, 12667, 12674, 12675, 12676
 12681, 12695, 12701, 12707, 12712, 12713, 12714, 12717, 12718, 12734, 12744, 12747, 12754, 12764, 12765, 12770
 12777, 12794, 12795, 12798, 12801, 12807, 12821, 12841, 12842, 12843, 12854, 12856, 12861, 12868, 12871, 12875
 12886, 12892, 12901, 12915, 12919, 12926, 12936, 12937, 12939, 12959, 12960, 12972, 12979, 12982, 12988, 12991
 12992, 12995, 13005, 13011, 13013, 13018, 13019, 13022, 13026, 13030, 13037, 13041, 13045, 13051, 13055, 13059
 13061, 13064, 13071, 13076, 13078, 13079, 13083, 13084, 13091, 13094, 13097, 13098, 13101, 13102, 13111, 13124
 13125, 13126, 13130, 13139, 13150, 13151, 13155, 13157, 13158, 13165, 13167, 13169, 13171, 13175, 13188, 13190
 13191, 13196, 13199, 13206, 13209, 13210, 13211, 13214, 13215, 13216, 13221, 13226, 13241, 13247, 13251, 13252
 13256, 13263, 13275, 13279, 13287, 13292, 13303, 13307, 13309, 13310, 13315, 13318, 13325, 13328, 13334, 13336
** ... 52 like lines cut
*Nset, nset=Set-2, instance=model-1-1
     3,     4,    21,    22,   167,   168,   169,   170,   218,   219,   220,   221,   222,   223,   224,   225
   226,   227,   228,   229,   230,   231,   232,   233,   234,   235,   236,   237,   238,   239,   240,   241
   242,   243,   244,   245,   246,   247,   248,   320,   321,   322,   323,   324,   325,   326,   327,   328
   329,   330,   331,   332,   333,   334,   335,   336,   337,   338,   339,   340,   341,   342,   343,   344
   345,   346,   347,   348,   349,   350,   351,   352,   353,   354,  1364,  1365,  1369,  1370,  1371,  1372
  1373,  1374,  1375,  1376,  1377,  1378,  1379,  1380,  1381,  1382,  1383,  1384,  1385,  1386,  1387,  1388
  1389,  1390,  1391,  1392,  1393,  1394,  1395,  1396,  1397,  1398,  1399,  1400,  1401,  1402,  1403,  1404
  1405,  1406,  1407,  1408,  1409,  1410,  1411,  1412,  1413,  1414,  1415,  1416,  1417,  1418,  1419,  1420
  1421,  1422,  1423,  1424,  1425,  1426,  1427,  1428,  1429,  1430,  1431,  1432,  1546,  1547,  1548,  1549
  1550,  1551,  1552,  1553,  1554,  1555,  1556,  1557,  1558,  1559,  1560,  1561,  1562,  1563,  1564,  1565
  1566,  1567,  1568,  1569,  1570,  1571,  1572,  1573,  1574,  1575,  1576,  1577,  1578,  1579,  1580,  1581
  1582,  1583,  1584,  1585,  1586,  1587,  1588,  1589,  1590,  1591,  1592,  1593,  1594,  1595,  1596,  1597
  1598,  1599,  1600,  1601,  1602,  1603,  1604,  1605,  1606,  1607,  3632,  3633,  3634,  3635,  3636,  3637
  3638,  3639,  3640,  3641,  3642,  3643,  3644,  3645,  3646,  3647,  3648,  3649,  3650,  3651,  3652,  3653
  3654,  3655,  3656,  3657,  3658,  3659,  3660,  3661,  3662,  3663,  3664,  3665,  3666,  3667,  3668,  3669
  3670,  3671,  3672,  3673,  3674,  3675,  3676,  3677,  3678,  3679,  3680,  3681,  3682,  3683,  3684,  3685
  3686,  3687,  3688,  3689,  3690,  3691,  3692,  3693,  6854,  6856,  6858,  6956,  7022,  7034,  7041,  8203
  8212,  8532,  8549,  8574,  8634,  8641,  8643,  8645,  8650,  9225,  9229,  9237,  9289,  9291,  9293,  9308
 10056, 10312, 10487, 10743, 10824, 10870, 10878, 11083, 11090, 11094, 11460, 11491, 11502, 11505, 11507, 11845
 12080, 12774, 12796, 13458, 13475, 13509, 13510, 13512, 14893, 14902, 14986, 14990, 15330, 15436, 15445, 15539
** ... 37 like lines cut
*Elset, elset=Set-2, instance=model-1-1
   198,   621,   776,  1357,  1902,  2516,  3206,  3721,  3724,  3925,  4129,  4327,  4611,  4943,  4945,  4975
  4980,  4983,  4989,  5084,  5286,  5300,  5327,  5680,  5697,  5880,  5884,  5935,  5949,  5963,  5970,  5975
  5987,  5994,  6022,  6032,  6039,  6041,  6051,  6074,  6093,  6110,  6126,  6139,  6164,  6166,  6175,  6199
  6206,  6286,  6287,  6288,  6297,  6362,  6410,  6492,  6498,  6500,  6511,  6515,  6516,  6521,  6526,  6540
  6558,  6571,  6586,  6615,  6647,  6650,  6654,  6661,  6666,  6674,  6686,  6808,  6961,  6988,  7012,  7032
  7128,  7151,  7155,  7164,  7166,  7173,  7174,  7189,  7197,  7221,  7223,  7230,  7248,  7257,  7267,  7270
  7271,  7278,  7286,  7292,  7294,  7296,  7302,  7305,  7306,  7320,  7321,  7324,  7327,  7329,  7334,  7336
  7347,  7355,  7357,  7378,  7379,  7382,  7394,  7409,  7410,  7412,  7451,  7465,  7466,  7482,  7491,  7500
  7501,  7506,  7517,  7545,  7546,  7548,  7553,  7554,  7555,  7560,  7565,  7570,  7573,  7575,  7580,  7583
  7586,  7591,  7594,  7598,  7601,  7605,  7606,  7611,  7615,  7616,  7620,  7621,  7628,  7631,  7635,  7636
  7639,  7640,  7645,  7651,  7652,  7656,  7661,  7666,  7671,  7672,  7680,  7683,  7685,  7687,  7689,  7691
  7696,  7701,  7705,  7880,  7939,  7950,  7955,  8132,  8296,  8619,  9043,  9058,  9064,  9109,  9130,  9386
  9432,  9517,  9519,  9523,  9557,  9559,  9577,  9662, 11465, 11671, 12987, 13040, 13808, 13826, 13930, 14707
 14740, 14747, 14756, 14759, 14800, 15264, 15674, 16107, 16234, 16243, 16709, 17030, 17141, 17187, 18988, 18992
 19051, 19063, 19124, 19408, 19416, 19489, 19495, 19506, 19512, 19516, 19517, 19519, 19523, 19531, 19536, 19541
 19564, 19652, 19655, 19664, 19671, 19672, 19673, 19676, 19679, 19680, 19681, 19683, 19685, 19690, 19701, 19713
 19725, 19732, 19763, 19766, 19768, 19774, 19775, 19784, 19787, 19789, 19794, 19795, 19797, 19811, 19814, 19817
 19831, 19844, 19845, 19850, 19860, 19862, 19866, 19867, 19871, 19876, 19880, 19881, 19887, 19899, 19906, 19912
 19952, 19978, 19986, 19988, 19999, 20007, 20012, 20013, 20021, 20022, 20029, 20031, 20057, 20059, 20065, 20067
 20070, 20072, 20073, 20075, 20078, 20082, 20083, 20091, 20097, 20099, 20104, 20106, 20108, 20117, 20119, 20120
** ... 4 like lines cut
*Nset, nset=Set-5
 1,
*Nset, nset=Set-6, instance=model-1-1
    77,    78,    79,    80,   676,   677,   678,   679,   680,   681,   682,   683,   684,   685,   686,   687
   688,   689,   690,   691,   692,   694,   695,   696,   697,   698,   699,   700,   701,   702,   703,   704
   705,   706,   707,   708,   709,   710,   711,   712,   713,   714,   715,   716,   717,   718,   719,   720
   721,   722,   723,   724,   725,   726,   727,   728,   729,   730,   731,   732,   733,   734,   735,   736
   737,   738,   739,   740,   741,   742,   743,   744,   745,   746,   747,   748,   749,   750,   751,   752
   753,   754,   755,   756,   757,   758,   759,   760,   761,   762,   763,   764,   765,   766,   767,   768
   769,   770,   771,   772,  2001,  2002,  2003,  2004,  2005,  2006,  2007,  2008,  2009,  2010,  2011,  2012
  2013,  2014,  2015,  2016,  2017,  2018,  2019,  2020,  2021,  2022,  2023,  2024,  2025,  2026,  2027,  2028
  2029,  2030,  2031,  2032,  2033,  2034,  2035,  2036,  2037,  2038,  2039,  2040,  2041,  2042,  2043,  2044
  2045,  2046,  2047,  2048,  2049,  2050,  2051,  2052,  2053,  2054,  2055,  2056,  2057,  2058,  2059,  2060
  2061,  2062,  2063,  2064,  2065,  2066,  2067,  2068,  2069,  2070,  2071,  2072,  2073,  2074,  2075,  2076
  2077,  2078,  2079,  2080,  2081,  2082,  2083,  2084,  2085,  2086,  2087,  2088,  2089,  2090,  2091,  2092
  2093,  2094,  2095,  2096,  2097,  2098,  2099,  2100,  2101,  2102,  2103,  2104,  2105,  2106,  2107,  2108
  2109,  2110,  2111,  2112,  2113,  2114,  2115,  2116,  2117,  2118,  2119,  2120,  2121,  2122,  2123,  2124
  2125,  2126,  2127,  2128,  2129,  2130,  2131,  2132,  2133,  2134,  2135,  2136,  2137,  2138,  2139,  2140
  2141,  2142,  2143,  2144,  2145,  2146,  2147,  2148,  2149,  2150,  2151,  2152,  2153,  2154,  2155,  2156
  2157,  2158,  2159,  2160,  2161,  2162,  2163,  2164,  2165,  2166,  2167,  2168,  2169,  2170,  2171,  2172
  2173,  2174,  2175,  2176,  2177,  2178,  2179,  2180,  2181,  2182,  2183,  2184,  2185,  2186,  2187,  2188
  2189,  2190,  2191,  2192,  2193,  2194,  2195,  2196,  2197,  2198,  2199,  2200,  2201,  2202,  2203,  2204
  2205,  2206,  2207,  2208,  2209,  2210,  2211,  2212,  2213,  2214,  2215,  2216,  2217,  2218,  2219,  2220
** ... 131 like lines cut
*Elset, elset=Set-6, instance=model-1-1
   160,   206,   440,   457,   699,   869,   963,   993,  1085,  1091,  1136,  1257,  1565,  1567,  1607,  1617
  1663,  1949,  2103,  2539,  2865,  3923,  4358,  4444,  4940,  5073,  5142,  5201,  5322,  5375,  5389,  5399
  5410,  5414,  5417,  5433,  5434,  5450,  5452,  5472,  5493,  5494,  5525,  5557,  5563,  5584,  5588,  5592
  5594,  5595,  5599,  5602,  5613,  5616,  5617,  5623,  5639,  5640,  5644,  5649,  5654,  6372,  6443,  6553
  6781,  6974,  7001,  7052,  7152,  7262,  7264,  7453,  7457,  7484,  7513,  7742,  7761,  7766,  7768,  8128
  8234,  8251,  8340,  8425,  8561,  8566,  8711,  8821,  8824,  8863,  8943,  8957,  9145,  9247,  9275,  9298
  9324,  9334,  9398,  9705,  9707,  9713,  9796,  9812,  9854,  9932, 10079, 10124, 10182, 10208, 10392, 10638
 10650, 10687, 10700, 10740, 10751, 10755, 10770, 10812, 10826, 11102, 11284, 11287, 11307, 11499, 11500, 11610
 11616, 11618, 11642, 11676, 11797, 11829, 11842, 11863, 11955, 12165, 12176, 12182, 12251, 12281, 12285, 12292
 12302, 12333, 12343, 12347, 12356, 12379, 12381, 12386, 12395, 12408, 12410, 12417, 12452, 12490, 12495, 12499
 12500, 12511, 12512, 12513, 12519, 12528, 12529, 12532, 12536, 12543, 12546, 12551, 12553, 12566, 12571, 12574
 12576, 12581, 12593, 12594, 12608, 12616, 12625, 12629, 12632, 12639, 12656, 12664, 12667, 12674, 12675, 12676
 12681, 12695, 12701, 12707, 12712, 12713, 12714, 12717, 12718, 12734, 12744, 12747, 12754, 12764, 12765, 12770
 12777, 12794, 12795, 12798, 12801, 12807, 12821, 12841, 12842, 12843, 12854, 12856, 12861, 12868, 12871, 12875
 12886, 12892, 12901, 12915, 12919, 12926, 12936, 12937, 12939, 12959, 12960, 12972, 12979, 12982, 12988, 12991
 12992, 12995, 13005, 13011, 13013, 13018, 13019, 13022, 13026, 13030, 13037, 13041, 13045, 13051, 13055, 13059
 13061, 13064, 13071, 13076, 13078, 13079, 13083, 13084, 13091, 13094, 13097, 13098, 13101, 13102, 13111, 13124
 13125, 13126, 13130, 13139, 13150, 13151, 13155, 13157, 13158, 13165, 13167, 13169, 13171, 13175, 13188, 13190
 13191, 13196, 13199, 13206, 13209, 13210, 13211, 13214, 13215, 13216, 13221, 13226, 13241, 13247, 13251, 13252
 13256, 13263, 13275, 13279, 13287, 13292, 13303, 13307, 13309, 13310, 13315, 13318, 13325, 13328, 13334, 13336
** ... 52 like lines cut
*Nset, nset=b_Set-3, instance=Part-2-1, generate
   1,  121,    1
*Elset, elset=b_Set-3, instance=Part-2-1, generate
   1,  100,    1
*Nset, nset=line, instance=model-1-1
    34,    38,   455,   456,   457,   458,   459,   460,   461,   462,   463,   464,   465,   466,   467,   468
   469, 23437, 27650, 28637, 29134, 29314, 29477, 29767, 29997, 30030, 30035, 30048, 30097, 30118, 30564, 30596
 30618,
*Elset, elset=line, instance=model-1-1
  5308,  7408,  8183,  8514,  8623,  8666,  8780,  9012,  9210,  9218,  9235,  9238,  9249,  9259,  9310,  9312
  9322,  9805,  9856,  9871,  9881,  9892,  9897,  9907,  9922,  9928,  9940,  9953, 12359, 15943, 16033
*Nset, nset=_PickedSet11, internal
 1,
*Elset, elset=_Surf-1_S3, internal, instance=model-1-1
   198,   621,   776,  1902,  2516,  3206,  3721,  3724,  3925,  4129,  4327,  4611,  4943,  4945,  4980,  4983
  4989,  5084,  5300,  5327,  5680,  5697,  5884,  5935,  5949,  5970,  5975,  6041,  6051,  6093,  6126,  6166
  6175,  6206,  6286,  6410,  6492,  6500,  6515,  6521,  6526,  6571,  6586,  6666,  6961,  7012,  7032,  7128
  7151,  7155,  7164,  7166,  7173,  7174,  7189,  7197,  7223,  7230,  7248,  7257,  7270,  7271,  7286,  7294
  7296,  7306,  7320,  7321,  7324,  7329,  7334,  7336,  7347,  7355,  7357,  7378,  7379,  7394,  7409,  7410
  7412,  7451,  7465,  7466,  7482,  7491,  7500,  7501,  7506,  7517,  7545,  7546,  7553,  7554,  7573,  7583
  7591,  7594,  7605,  7615,  7620,  7621,  7628,  7635,  7640,  7651,  7671,  7683,  7687,  7689,  7705,  7880
  7939,  7955,  8132,  8296,  9109,  9130,  9386,  9432,  9519,  9523,  9559,  9662, 11465, 11671, 12987, 13040
 13808, 13826, 13930, 14707, 14740, 14747, 14756, 14759, 14800, 15264, 16107, 16234, 16243, 16709, 17030, 17187
 18988, 18992, 19051, 19124, 19408, 19416, 19495, 19506, 19512, 19516, 19517, 19523, 19536, 19541, 19564, 19652
 19655, 19664, 19671, 19672, 19673, 19676, 19679, 19681, 19683, 19685, 19690, 19701, 19713, 19725, 19732, 19763
 19766, 19768, 19774, 19775, 19784, 19787, 19789, 19794, 19795, 19797, 19811, 19814, 19817, 19831, 19844, 19845
 19850, 19860, 19862, 19866, 19867, 19871, 19876, 19880, 19881, 19887, 19899, 19906, 19912, 19952, 19978, 19986
 19988, 19999, 20007, 20013, 20021, 20022, 20029, 20031, 20057, 20059, 20065, 20067, 20070, 20072, 20073, 20075
 20078, 20082, 20083, 20091, 20097, 20099, 20104, 20106, 20108, 20119, 20120, 20135, 20163, 20166, 20173, 20175
 20181, 20188, 20194, 20206, 20219, 20221, 20222, 20228, 20230, 20232, 20236, 20244, 20245, 20253, 20274, 20275
 20280, 20287, 20317, 20333, 20491, 20540, 20730, 20769, 20784, 20789, 20816, 20819, 21201, 21205, 21208, 21210
 21220, 21226, 21235, 21246, 21263, 21276, 21299, 21307, 21319, 21338, 21357, 21436, 21445, 21450, 21475, 21483
 21484, 21500, 21502, 21515, 22323
*Elset, elset=_Surf-1_S1, internal, instance=model-1-1
  4975,  6022,  6139,  6199,  6498,  6615,  6650,  7267,  7278,  7382,  7548,  7560,  7565,  7570,  7575,  7580
  7586,  7598,  7601,  7685,  7691,  7950,  9517,  9577, 19489, 19519, 19531, 19680, 20123, 21291
*Elset, elset=_Surf-1_S2, internal, instance=model-1-1
  5286,  5880,  5987,  5994,  6032,  6074,  6287,  6297,  6511,  6988,  7221,  7292,  7305,  7327,  7639,  7652
  7656,  7666,  9043,  9058,  9064,  9557, 15674, 20012, 20215, 20741
*Elset, elset=_Surf-1_S4, internal, instance=model-1-1
  1357,  5963,  6039,  6110,  6164,  6288,  6362,  6516,  6540,  6558,  6647,  6654,  6661,  6674,  6686,  6808
  7302,  7555,  7606,  7611,  7616,  7631,  7636,  7645,  7661,  7672,  7680,  7696,  7701,  8619, 17141, 19063
 20117, 20288, 20753
*Surface, type=ELEMENT, name=Surf-1
_Surf-1_S3, S3
_Surf-1_S1, S1
_Surf-1_S2, S2
_Surf-1_S4, S4
*Elset, elset=_m_Surf-2_SNEG, internal, instance=Part-2-1, generate
   1,  100,    1
*Surface, type=ELEMENT, name=m_Surf-2
_m_Surf-2_SNEG, SNEG
*Elset, elset=_s_Surf-2_S3, internal, instance=model-1-1
   198,   621,   776,  1902,  2516,  3206,  3721,  3724,  3925,  4129,  4327,  4611,  4943,  4945,  4980,  4983
  4989,  5084,  5300,  5327,  5680,  5697,  5884,  5935,  5949,  5970,  5975,  6041,  6051,  6093,  6126,  6166
  6175,  6206,  6286,  6410,  6492,  6500,  6515,  6521,  6526,  6571,  6586,  6666,  6961,  7012,  7032,  7128
  7151,  7155,  7164,  7166,  7173,  7174,  7189,  7197,  7223,  7230,  7248,  7257,  7270,  7271,  7286,  7294
  7296,  7306,  7320,  7321,  7324,  7329,  7334,  7336,  7347,  7355,  7357,  7378,  7379,  7394,  7409,  7410
  7412,  7451,  7465,  7466,  7482,  7491,  7500,  7501,  7506,  7517,  7545,  7546,  7553,  7554,  7573,  7583
  7591,  7594,  7605,  7615,  7620,  7621,  7628,  7635,  7640,  7651,  7671,  7683,  7687,  7689,  7705,  7880
  7939,  7955,  8132,  8296,  9109,  9130,  9386,  9432,  9519,  9523,  9559,  9662, 11465, 11671, 12987, 13040
 13808, 13826, 13930, 14707, 14740, 14747, 14756, 14759, 14800, 15264, 16107, 16234, 16243, 16709, 17030, 17187
 18988, 18992, 19051, 19124, 19408, 19416, 19495, 19506, 19512, 19516, 19517, 19523, 19536, 19541, 19564, 19652
 19655, 19664, 19671, 19672, 19673, 19676, 19679, 19681, 19683, 19685, 19690, 19701, 19713, 19725, 19732, 19763
 19766, 19768, 19774, 19775, 19784, 19787, 19789, 19794, 19795, 19797, 19811, 19814, 19817, 19831, 19844, 19845
 19850, 19860, 19862, 19866, 19867, 19871, 19876, 19880, 19881, 19887, 19899, 19906, 19912, 19952, 19978, 19986
 19988, 19999, 20007, 20013, 20021, 20022, 20029, 20031, 20057, 20059, 20065, 20067, 20070, 20072, 20073, 20075
 20078, 20082, 20083, 20091, 20097, 20099, 20104, 20106, 20108, 20119, 20120, 20135, 20163, 20166, 20173, 20175
 20181, 20188, 20194, 20206, 20219, 20221, 20222, 20228, 20230, 20232, 20236, 20244, 20245, 20253, 20274, 20275
 20280, 20287, 20317, 20333, 20491, 20540, 20730, 20769, 20784, 20789, 20816, 20819, 21201, 21205, 21208, 21210
 21220, 21226, 21235, 21246, 21263, 21276, 21299, 21307, 21319, 21338, 21357, 21436, 21445, 21450, 21475, 21483
 21484, 21500, 21502, 21515, 22323
*Elset, elset=_s_Surf-2_S1, internal, instance=model-1-1
  4975,  6022,  6139,  6199,  6498,  6615,  6650,  7267,  7278,  7382,  7548,  7560,  7565,  7570,  7575,  7580
  7586,  7598,  7601,  7685,  7691,  7950,  9517,  9577, 19489, 19519, 19531, 19680, 20123, 21291
*Elset, elset=_s_Surf-2_S2, internal, instance=model-1-1
  5286,  5880,  5987,  5994,  6032,  6074,  6287,  6297,  6511,  6988,  7221,  7292,  7305,  7327,  7639,  7652
  7656,  7666,  9043,  9058,  9064,  9557, 15674, 20012, 20215, 20741
*Elset, elset=_s_Surf-2_S4, internal, instance=model-1-1
  1357,  5963,  6039,  6110,  6164,  6288,  6362,  6516,  6540,  6558,  6647,  6654,  6661,  6674,  6686,  6808
  7302,  7555,  7606,  7611,  7616,  7631,  7636,  7645,  7661,  7672,  7680,  7696,  7701,  8619, 17141, 19063
 20117, 20288, 20753
*Surface, type=ELEMENT, name=s_Surf-2
_s_Surf-2_S3, S3
_s_Surf-2_S1, S1
_s_Surf-2_S2, S2
_s_Surf-2_S4, S4
** Constraint: Constraint-1
*Rigid Body, ref node=_PickedSet11, elset=b_Set-3
*End Assembly
** 
** MATERIALS
** 
*Material, name=Material-1
*Elastic, type=ENGINEERING CONSTANTS
 3.618e+10, 3.854e+10,  3.59e+10,     0.328,     0.356,     0.324, 1.367e+10, 1.156e+10
 1.211e+10,
*Plastic
 5.83137e+06,       0.
 6.37557e+06, 2.47e-05
 6.89715e+06, 4.94e-05
  7.4189e+06, 7.42e-05
 7.94512e+06, 9.91e-05
    8.44e+06, 0.000123
 8.98261e+06, 0.000148
 9.48613e+06, 0.000173
 1.00215e+07, 0.000198
 1.05133e+07, 0.000223
 1.10047e+07, 0.000248
  1.1514e+07, 0.000272
 1.20767e+07, 0.000297
 1.25826e+07, 0.000322
** 
** INTERACTION PROPERTIES
** 
*Surface Interaction, name=IntProp-1
1.,
*Friction, slip tolerance=0.005
 0.4,
*Surface Behavior, pressure-overclosure=HARD
** 
** INTERACTIONS
** 
** Interaction: Int-1
*Contact Pair, interaction=IntProp-1, type=SURFACE TO SURFACE
s_Surf-2, m_Surf-2
** ----------------------------------------------------------------
** 
** STEP: Step-1
** 
*Step, name=Step-1, nlgeom=YES, inc=10000000
*Static
0.01, 1., 1e-07, 0.1
** 
** BOUNDARY CONDITIONS
** 
** Name: BC-1 Type: Displacement/Rotation
*Boundary
Set-5, 1, 1
Set-5, 2, 2, 0.0055
Set-5, 3, 3
Set-5, 4, 4
Set-5, 5, 5
Set-5, 6, 6
** Name: BC-2 Type: Displacement/Rotation
*Boundary
Set-6, 1, 1
Set-6, 2, 2
Set-6, 3, 3
Set-6, 4, 4
Set-6, 5, 5
Set-6, 6, 6
** 
** OUTPUT REQUESTS
** 
*Restart, write, frequency=0
** 
** FIELD OUTPUT: F-Output-1
** 
*Output, field
*Node Output
RF, U
*Element Output, directions=YES
E, MISES, S
** 
** HISTORY OUTPUT: H-Output-1
** 
*Output, history, variable=PRESELECT
*End Step
